
---------- Begin Simulation Statistics ----------
sim_seconds                                  0.243514                       # Number of seconds simulated
sim_ticks                                243513859500                       # Number of ticks simulated
sim_freq                                 1000000000000                       # Frequency of simulated ticks
host_inst_rate                                 130615                       # Simulator instruction rate (inst/s)
host_tick_rate                               96304560                       # Simulator tick rate (ticks/s)
host_mem_usage                                 311808                       # Number of bytes of host memory used
host_seconds                                  2528.58                       # Real time elapsed on the host
sim_insts                                   330270061                       # Number of instructions simulated
system.iocache.replacements                     15789                       # number of replacements
system.iocache.tagsinuse                           16                       # Cycle average of tags in use
system.iocache.total_refs                           0                       # Total number of references to valid blocks.
system.iocache.sampled_refs                     15805                       # Sample count of references to valid blocks.
system.iocache.avg_refs                             0                       # Average number of references to valid blocks.
system.iocache.warmup_cycle                         0                       # Cycle when the warmup percentage was hit.
system.iocache.occ_blocks::1                       16                       # Average occupied blocks per context
system.iocache.occ_percent::1                       1                       # Average percentage of cache occupancy
system.iocache.demand_hits::0                       0                       # number of demand (read+write) hits
system.iocache.demand_hits::1                       0                       # number of demand (read+write) hits
system.iocache.demand_hits::total                   0                       # number of demand (read+write) hits
system.iocache.overall_hits::0                      0                       # number of overall hits
system.iocache.overall_hits::1                      0                       # number of overall hits
system.iocache.overall_hits::total                  0                       # number of overall hits
system.iocache.ReadReq_misses::1                   45                       # number of ReadReq misses
system.iocache.ReadReq_misses::total               45                       # number of ReadReq misses
system.iocache.WriteReq_misses::1               15744                       # number of WriteReq misses
system.iocache.WriteReq_misses::total           15744                       # number of WriteReq misses
system.iocache.demand_misses::0                     0                       # number of demand (read+write) misses
system.iocache.demand_misses::1                 15789                       # number of demand (read+write) misses
system.iocache.demand_misses::total             15789                       # number of demand (read+write) misses
system.iocache.overall_misses::0                    0                       # number of overall misses
system.iocache.overall_misses::1                15789                       # number of overall misses
system.iocache.overall_misses::total            15789                       # number of overall misses
system.iocache.ReadReq_miss_latency           1125000                       # number of ReadReq miss cycles
system.iocache.WriteReq_miss_latency       1665883032                       # number of WriteReq miss cycles
system.iocache.demand_miss_latency         1667008032                       # number of demand (read+write) miss cycles
system.iocache.overall_miss_latency        1667008032                       # number of overall miss cycles
system.iocache.ReadReq_accesses::1                 45                       # number of ReadReq accesses(hits+misses)
system.iocache.ReadReq_accesses::total             45                       # number of ReadReq accesses(hits+misses)
system.iocache.WriteReq_accesses::1             15744                       # number of WriteReq accesses(hits+misses)
system.iocache.WriteReq_accesses::total         15744                       # number of WriteReq accesses(hits+misses)
system.iocache.demand_accesses::0                   0                       # number of demand (read+write) accesses
system.iocache.demand_accesses::1               15789                       # number of demand (read+write) accesses
system.iocache.demand_accesses::total           15789                       # number of demand (read+write) accesses
system.iocache.overall_accesses::0                  0                       # number of overall (read+write) accesses
system.iocache.overall_accesses::1              15789                       # number of overall (read+write) accesses
system.iocache.overall_accesses::total          15789                       # number of overall (read+write) accesses
system.iocache.ReadReq_miss_rate::1                 1                       # miss rate for ReadReq accesses
system.iocache.WriteReq_miss_rate::1                1                       # miss rate for WriteReq accesses
system.iocache.demand_miss_rate::0           no_value                       # miss rate for demand accesses
system.iocache.demand_miss_rate::1                  1                       # miss rate for demand accesses
system.iocache.demand_miss_rate::total       no_value                       # miss rate for demand accesses
system.iocache.overall_miss_rate::0          no_value                       # miss rate for overall accesses
system.iocache.overall_miss_rate::1                 1                       # miss rate for overall accesses
system.iocache.overall_miss_rate::total      no_value                       # miss rate for overall accesses
system.iocache.ReadReq_avg_miss_latency::0          inf                       # average ReadReq miss latency
system.iocache.ReadReq_avg_miss_latency::1        25000                       # average ReadReq miss latency
system.iocache.ReadReq_avg_miss_latency::total          inf                       # average ReadReq miss latency
system.iocache.WriteReq_avg_miss_latency::0          inf                       # average WriteReq miss latency
system.iocache.WriteReq_avg_miss_latency::1 105810.660061                       # average WriteReq miss latency
system.iocache.WriteReq_avg_miss_latency::total          inf                       # average WriteReq miss latency
system.iocache.demand_avg_miss_latency::0          inf                       # average overall miss latency
system.iocache.demand_avg_miss_latency::1 105580.342770                       # average overall miss latency
system.iocache.demand_avg_miss_latency::total          inf                       # average overall miss latency
system.iocache.overall_avg_miss_latency::0          inf                       # average overall miss latency
system.iocache.overall_avg_miss_latency::1 105580.342770                       # average overall miss latency
system.iocache.overall_avg_miss_latency::total          inf                       # average overall miss latency
system.iocache.blocked_cycles::no_mshrs      32750640                       # number of cycles access was blocked
system.iocache.blocked_cycles::no_targets            0                       # number of cycles access was blocked
system.iocache.blocked::no_mshrs                10980                       # number of cycles access was blocked
system.iocache.blocked::no_targets                  0                       # number of cycles access was blocked
system.iocache.avg_blocked_cycles::no_mshrs  2982.754098                       # average number of cycles each access was blocked
system.iocache.avg_blocked_cycles::no_targets     no_value                       # average number of cycles each access was blocked
system.iocache.fast_writes                          0                       # number of fast writes performed
system.iocache.cache_copies                         0                       # number of cache copies performed
system.iocache.writebacks                       15744                       # number of writebacks
system.iocache.demand_mshr_hits                     0                       # number of demand (read+write) MSHR hits
system.iocache.overall_mshr_hits                    0                       # number of overall MSHR hits
system.iocache.ReadReq_mshr_misses                 45                       # number of ReadReq MSHR misses
system.iocache.WriteReq_mshr_misses             15744                       # number of WriteReq MSHR misses
system.iocache.demand_mshr_misses               15789                       # number of demand (read+write) MSHR misses
system.iocache.overall_mshr_misses              15789                       # number of overall MSHR misses
system.iocache.overall_mshr_uncacheable_misses            0                       # number of overall MSHR uncacheable misses
system.iocache.ReadReq_mshr_miss_latency       585000                       # number of ReadReq MSHR miss cycles
system.iocache.WriteReq_mshr_miss_latency   1476921672                       # number of WriteReq MSHR miss cycles
system.iocache.demand_mshr_miss_latency    1477506672                       # number of demand (read+write) MSHR miss cycles
system.iocache.overall_mshr_miss_latency   1477506672                       # number of overall MSHR miss cycles
system.iocache.overall_mshr_uncacheable_latency            0                       # number of overall MSHR uncacheable cycles
system.iocache.ReadReq_mshr_miss_rate::0          inf                       # mshr miss rate for ReadReq accesses
system.iocache.ReadReq_mshr_miss_rate::1            1                       # mshr miss rate for ReadReq accesses
system.iocache.ReadReq_mshr_miss_rate::total          inf                       # mshr miss rate for ReadReq accesses
system.iocache.WriteReq_mshr_miss_rate::0          inf                       # mshr miss rate for WriteReq accesses
system.iocache.WriteReq_mshr_miss_rate::1            1                       # mshr miss rate for WriteReq accesses
system.iocache.WriteReq_mshr_miss_rate::total          inf                       # mshr miss rate for WriteReq accesses
system.iocache.demand_mshr_miss_rate::0           inf                       # mshr miss rate for demand accesses
system.iocache.demand_mshr_miss_rate::1             1                       # mshr miss rate for demand accesses
system.iocache.demand_mshr_miss_rate::total          inf                       # mshr miss rate for demand accesses
system.iocache.overall_mshr_miss_rate::0          inf                       # mshr miss rate for overall accesses
system.iocache.overall_mshr_miss_rate::1            1                       # mshr miss rate for overall accesses
system.iocache.overall_mshr_miss_rate::total          inf                       # mshr miss rate for overall accesses
system.iocache.ReadReq_avg_mshr_miss_latency        13000                       # average ReadReq mshr miss latency
system.iocache.WriteReq_avg_mshr_miss_latency 93808.541159                       # average WriteReq mshr miss latency
system.iocache.demand_avg_mshr_miss_latency 93578.229907                       # average overall mshr miss latency
system.iocache.overall_avg_mshr_miss_latency 93578.229907                       # average overall mshr miss latency
system.iocache.overall_avg_mshr_uncacheable_latency     no_value                       # average overall mshr uncacheable latency
system.iocache.mshr_cap_events                      0                       # number of times MSHR cap was activated
system.iocache.soft_prefetch_mshr_full              0                       # number of mshr full events for SW prefetching instrutions
system.iocache.no_allocate_misses                   0                       # Number of misses that were no-allocate
system.disk0.dma_read_full_pages                    0                       # Number of full page size DMA reads (not PRD).
system.disk0.dma_read_bytes                         0                       # Number of bytes transfered via DMA reads (not PRD).
system.disk0.dma_read_txs                           0                       # Number of DMA read transactions (not PRD).
system.disk0.dma_write_full_pages                 120                       # Number of full page size DMA writes.
system.disk0.dma_write_bytes                  1007616                       # Number of bytes transfered via DMA writes.
system.disk0.dma_write_txs                        126                       # Number of DMA write transactions.
system.disk2.dma_read_full_pages                    0                       # Number of full page size DMA reads (not PRD).
system.disk2.dma_read_bytes                         0                       # Number of bytes transfered via DMA reads (not PRD).
system.disk2.dma_read_txs                           0                       # Number of DMA read transactions (not PRD).
system.disk2.dma_write_full_pages                   0                       # Number of full page size DMA writes.
system.disk2.dma_write_bytes                        0                       # Number of bytes transfered via DMA writes.
system.disk2.dma_write_txs                          0                       # Number of DMA write transactions.
system.cpu0.dtb.fetch_hits                          0                       # ITB hits
system.cpu0.dtb.fetch_misses                        0                       # ITB misses
system.cpu0.dtb.fetch_acv                           0                       # ITB acv
system.cpu0.dtb.fetch_accesses                      0                       # ITB accesses
system.cpu0.dtb.read_hits                           0                       # DTB read hits
system.cpu0.dtb.read_misses                         0                       # DTB read misses
system.cpu0.dtb.read_acv                            0                       # DTB read access violations
system.cpu0.dtb.read_accesses                       0                       # DTB read accesses
system.cpu0.dtb.write_hits                          0                       # DTB write hits
system.cpu0.dtb.write_misses                        0                       # DTB write misses
system.cpu0.dtb.write_acv                           0                       # DTB write access violations
system.cpu0.dtb.write_accesses                      0                       # DTB write accesses
system.cpu0.dtb.data_hits                           0                       # DTB hits
system.cpu0.dtb.data_misses                         0                       # DTB misses
system.cpu0.dtb.data_acv                            0                       # DTB access violations
system.cpu0.dtb.data_accesses                       0                       # DTB accesses
system.cpu0.itb.fetch_hits                          0                       # ITB hits
system.cpu0.itb.fetch_misses                        0                       # ITB misses
system.cpu0.itb.fetch_acv                           0                       # ITB acv
system.cpu0.itb.fetch_accesses                      0                       # ITB accesses
system.cpu0.itb.read_hits                           0                       # DTB read hits
system.cpu0.itb.read_misses                         0                       # DTB read misses
system.cpu0.itb.read_acv                            0                       # DTB read access violations
system.cpu0.itb.read_accesses                       0                       # DTB read accesses
system.cpu0.itb.write_hits                          0                       # DTB write hits
system.cpu0.itb.write_misses                        0                       # DTB write misses
system.cpu0.itb.write_acv                           0                       # DTB write access violations
system.cpu0.itb.write_accesses                      0                       # DTB write accesses
system.cpu0.itb.data_hits                           0                       # DTB hits
system.cpu0.itb.data_misses                         0                       # DTB misses
system.cpu0.itb.data_acv                            0                       # DTB access violations
system.cpu0.itb.data_accesses                       0                       # DTB accesses
system.cpu0.numCycles                               0                       # number of cpu cycles simulated
system.cpu0.numWorkItemsStarted                     0                       # number of work items this cpu started
system.cpu0.numWorkItemsCompleted                   0                       # number of work items this cpu completed
system.cpu0.num_insts                               0                       # Number of instructions executed
system.cpu0.num_int_alu_accesses                    0                       # Number of integer alu accesses
system.cpu0.num_fp_alu_accesses                     0                       # Number of float alu accesses
system.cpu0.num_func_calls                          0                       # number of times a function call or return occured
system.cpu0.num_conditional_control_insts            0                       # number of instructions that are conditional controls
system.cpu0.num_int_insts                           0                       # number of integer instructions
system.cpu0.num_fp_insts                            0                       # number of float instructions
system.cpu0.num_int_register_reads                  0                       # number of times the integer registers were read
system.cpu0.num_int_register_writes                 0                       # number of times the integer registers were written
system.cpu0.num_fp_register_reads                   0                       # number of times the floating registers were read
system.cpu0.num_fp_register_writes                  0                       # number of times the floating registers were written
system.cpu0.num_mem_refs                            0                       # number of memory refs
system.cpu0.num_load_insts                          0                       # Number of load instructions
system.cpu0.num_store_insts                         0                       # Number of store instructions
system.cpu0.num_idle_cycles                         0                       # Number of idle cycles
system.cpu0.num_busy_cycles                         0                       # Number of busy cycles
system.cpu0.not_idle_fraction                       1                       # Percentage of non-idle cycles
system.cpu0.idle_fraction                           0                       # Percentage of idle cycles
system.cpu0.kern.inst.arm                           0                       # number of arm instructions executed
system.cpu0.kern.inst.quiesce                      46                       # number of quiesce instructions executed
system.cpu0.kern.inst.hwrei                    843728                       # number of hwrei instructions executed
system.cpu0.kern.ipl_count::0                  331880     41.49%     41.49% # number of times we switched to this ipl
system.cpu0.kern.ipl_count::21                  83671     10.46%     51.95% # number of times we switched to this ipl
system.cpu0.kern.ipl_count::22                    249      0.03%     51.98% # number of times we switched to this ipl
system.cpu0.kern.ipl_count::30                     11      0.00%     51.98% # number of times we switched to this ipl
system.cpu0.kern.ipl_count::31                 384123     48.02%    100.00% # number of times we switched to this ipl
system.cpu0.kern.ipl_count::total              799934                       # number of times we switched to this ipl
system.cpu0.kern.ipl_good::0                   331880     44.39%     44.39% # number of times we switched to this ipl from a different ipl
system.cpu0.kern.ipl_good::21                   83671     11.19%     55.58% # number of times we switched to this ipl from a different ipl
system.cpu0.kern.ipl_good::22                     249      0.03%     55.61% # number of times we switched to this ipl from a different ipl
system.cpu0.kern.ipl_good::30                      11      0.00%     55.61% # number of times we switched to this ipl from a different ipl
system.cpu0.kern.ipl_good::31                  331900     44.39%    100.00% # number of times we switched to this ipl from a different ipl
system.cpu0.kern.ipl_good::total               747711                       # number of times we switched to this ipl from a different ipl
system.cpu0.kern.ipl_ticks::0            105682104000     43.46%     43.46% # number of cycles we spent at this ipl
system.cpu0.kern.ipl_ticks::21            25065685000     10.31%     53.77% # number of cycles we spent at this ipl
system.cpu0.kern.ipl_ticks::22               60294000      0.02%     53.79% # number of cycles we spent at this ipl
system.cpu0.kern.ipl_ticks::30                5526500      0.00%     53.80% # number of cycles we spent at this ipl
system.cpu0.kern.ipl_ticks::31           112354646500     46.20%    100.00% # number of cycles we spent at this ipl
system.cpu0.kern.ipl_ticks::total        243168256000                       # number of cycles we spent at this ipl
system.cpu0.kern.ipl_used::0                        1                       # fraction of swpipl calls that actually changed the ipl
system.cpu0.kern.ipl_used::21                       1                       # fraction of swpipl calls that actually changed the ipl
system.cpu0.kern.ipl_used::22                       1                       # fraction of swpipl calls that actually changed the ipl
system.cpu0.kern.ipl_used::30                       1                       # fraction of swpipl calls that actually changed the ipl
system.cpu0.kern.ipl_used::31                0.864046                       # fraction of swpipl calls that actually changed the ipl
system.cpu0.kern.syscall::1                         1      0.03%      0.03% # number of syscalls executed
system.cpu0.kern.syscall::2                         1      0.03%      0.06% # number of syscalls executed
system.cpu0.kern.syscall::3                         2      0.06%      0.11% # number of syscalls executed
system.cpu0.kern.syscall::4                      3595     99.83%     99.94% # number of syscalls executed
system.cpu0.kern.syscall::19                        1      0.03%     99.97% # number of syscalls executed
system.cpu0.kern.syscall::73                        1      0.03%    100.00% # number of syscalls executed
system.cpu0.kern.syscall::total                  3601                       # number of syscalls executed
system.cpu0.kern.callpal::wripir                    2      0.00%      0.00% # number of callpals executed
system.cpu0.kern.callpal::swpctx                   15      0.00%      0.00% # number of callpals executed
system.cpu0.kern.callpal::tbi                       1      0.00%      0.00% # number of callpals executed
system.cpu0.kern.callpal::swpipl               628512     82.75%     82.75% # number of callpals executed
system.cpu0.kern.callpal::rdps                   7503      0.99%     83.74% # number of callpals executed
system.cpu0.kern.callpal::rdusp                     1      0.00%     83.74% # number of callpals executed
system.cpu0.kern.callpal::rti                   87520     11.52%     95.26% # number of callpals executed
system.cpu0.kern.callpal::callsys                3609      0.48%     95.74% # number of callpals executed
system.cpu0.kern.callpal::rdunique              32363      4.26%    100.00% # number of callpals executed
system.cpu0.kern.callpal::total                759526                       # number of callpals executed
system.cpu0.kern.mode_switch::kernel            87535                       # number of protection mode switches
system.cpu0.kern.mode_switch::user               3635                       # number of protection mode switches
system.cpu0.kern.mode_switch::idle                  0                       # number of protection mode switches
system.cpu0.kern.mode_good::kernel               3635                      
system.cpu0.kern.mode_good::user                 3635                      
system.cpu0.kern.mode_good::idle                    0                      
system.cpu0.kern.mode_switch_good::kernel     0.041526                       # fraction of useful protection mode switches
system.cpu0.kern.mode_switch_good::user             1                       # fraction of useful protection mode switches
system.cpu0.kern.mode_switch_good::idle      no_value                       # fraction of useful protection mode switches
system.cpu0.kern.mode_switch_good::total     no_value                       # fraction of useful protection mode switches
system.cpu0.kern.mode_ticks::kernel      224101644500     92.20%     92.20% # number of ticks spent at the given mode
system.cpu0.kern.mode_ticks::user         18968594000      7.80%    100.00% # number of ticks spent at the given mode
system.cpu0.kern.mode_ticks::idle                   0      0.00%    100.00% # number of ticks spent at the given mode
system.cpu0.kern.swap_context                      15                       # number of times the context was actually changed
system.tsunami.ethernet.descDMAReads                0                       # Number of descriptors the device read w/ DMA
system.tsunami.ethernet.descDMAWrites               0                       # Number of descriptors the device wrote w/ DMA
system.tsunami.ethernet.descDmaReadBytes            0                       # number of descriptor bytes read w/ DMA
system.tsunami.ethernet.descDmaWriteBytes            0                       # number of descriptor bytes write w/ DMA
system.tsunami.ethernet.postedSwi                   0                       # number of software interrupts posted to CPU
system.tsunami.ethernet.coalescedSwi         no_value                       # average number of Swi's coalesced into each post
system.tsunami.ethernet.totalSwi                    0                       # total number of Swi written to ISR
system.tsunami.ethernet.postedRxIdle                0                       # number of rxIdle interrupts posted to CPU
system.tsunami.ethernet.coalescedRxIdle      no_value                       # average number of RxIdle's coalesced into each post
system.tsunami.ethernet.totalRxIdle                 0                       # total number of RxIdle written to ISR
system.tsunami.ethernet.postedRxOk                  0                       # number of RxOk interrupts posted to CPU
system.tsunami.ethernet.coalescedRxOk        no_value                       # average number of RxOk's coalesced into each post
system.tsunami.ethernet.totalRxOk                   0                       # total number of RxOk written to ISR
system.tsunami.ethernet.postedRxDesc                0                       # number of RxDesc interrupts posted to CPU
system.tsunami.ethernet.coalescedRxDesc      no_value                       # average number of RxDesc's coalesced into each post
system.tsunami.ethernet.totalRxDesc                 0                       # total number of RxDesc written to ISR
system.tsunami.ethernet.postedTxOk                  0                       # number of TxOk interrupts posted to CPU
system.tsunami.ethernet.coalescedTxOk        no_value                       # average number of TxOk's coalesced into each post
system.tsunami.ethernet.totalTxOk                   0                       # total number of TxOk written to ISR
system.tsunami.ethernet.postedTxIdle                0                       # number of TxIdle interrupts posted to CPU
system.tsunami.ethernet.coalescedTxIdle      no_value                       # average number of TxIdle's coalesced into each post
system.tsunami.ethernet.totalTxIdle                 0                       # total number of TxIdle written to ISR
system.tsunami.ethernet.postedTxDesc                0                       # number of TxDesc interrupts posted to CPU
system.tsunami.ethernet.coalescedTxDesc      no_value                       # average number of TxDesc's coalesced into each post
system.tsunami.ethernet.totalTxDesc                 0                       # total number of TxDesc written to ISR
system.tsunami.ethernet.postedRxOrn                 0                       # number of RxOrn posted to CPU
system.tsunami.ethernet.coalescedRxOrn       no_value                       # average number of RxOrn's coalesced into each post
system.tsunami.ethernet.totalRxOrn                  0                       # total number of RxOrn written to ISR
system.tsunami.ethernet.coalescedTotal       no_value                       # average number of interrupts coalesced into each post
system.tsunami.ethernet.postedInterrupts            0                       # number of posts to CPU
system.tsunami.ethernet.droppedPackets              0                       # number of packets dropped
system.new0.dtb.fetch_hits                          0                       # ITB hits
system.new0.dtb.fetch_misses                        0                       # ITB misses
system.new0.dtb.fetch_acv                           0                       # ITB acv
system.new0.dtb.fetch_accesses                      0                       # ITB accesses
system.new0.dtb.read_hits                    32991144                       # DTB read hits
system.new0.dtb.read_misses                       621                       # DTB read misses
system.new0.dtb.read_acv                            1                       # DTB read access violations
system.new0.dtb.read_accesses                 4441894                       # DTB read accesses
system.new0.dtb.write_hits                   18062882                       # DTB write hits
system.new0.dtb.write_misses                     2393                       # DTB write misses
system.new0.dtb.write_acv                          14                       # DTB write access violations
system.new0.dtb.write_accesses                2310762                       # DTB write accesses
system.new0.dtb.data_hits                    51054026                       # DTB hits
system.new0.dtb.data_misses                      3014                       # DTB misses
system.new0.dtb.data_acv                           15                       # DTB access violations
system.new0.dtb.data_accesses                 6752656                       # DTB accesses
system.new0.itb.fetch_hits                    8041991                       # ITB hits
system.new0.itb.fetch_misses                      293                       # ITB misses
system.new0.itb.fetch_acv                       28827                       # ITB acv
system.new0.itb.fetch_accesses                8042284                       # ITB accesses
system.new0.itb.read_hits                           0                       # DTB read hits
system.new0.itb.read_misses                         0                       # DTB read misses
system.new0.itb.read_acv                            0                       # DTB read access violations
system.new0.itb.read_accesses                       0                       # DTB read accesses
system.new0.itb.write_hits                          0                       # DTB write hits
system.new0.itb.write_misses                        0                       # DTB write misses
system.new0.itb.write_acv                           0                       # DTB write access violations
system.new0.itb.write_accesses                      0                       # DTB write accesses
system.new0.itb.data_hits                           0                       # DTB hits
system.new0.itb.data_misses                         0                       # DTB misses
system.new0.itb.data_acv                            0                       # DTB access violations
system.new0.itb.data_accesses                       0                       # DTB accesses
system.new0.numCycles                       420976908                       # number of cpu cycles simulated
system.new0.numWorkItemsStarted                     0                       # number of work items this cpu started
system.new0.numWorkItemsCompleted                   0                       # number of work items this cpu completed
system.new0.BPredUnit.lookups                45877741                       # Number of BP lookups
system.new0.BPredUnit.condPredicted          29977717                       # Number of conditional branches predicted
system.new0.BPredUnit.condIncorrect            621108                       # Number of conditional branches incorrect
system.new0.BPredUnit.BTBLookups             36078588                       # Number of BTB lookups
system.new0.BPredUnit.BTBHits                16731593                       # Number of BTB hits
system.new0.BPredUnit.BTBCorrect                    0                       # Number of correct BTB predictions (this stat may not work properly.
system.new0.BPredUnit.usedRAS                 7316717                       # Number of times the RAS was used to get a target.
system.new0.BPredUnit.RASInCorrect             152464                       # Number of incorrect RAS predictions.
system.new0.fetch.icacheStallCycles          34042085                       # Number of cycles fetch is stalled on an Icache miss
system.new0.fetch.Insts                     211343020                       # Number of instructions fetch has processed
system.new0.fetch.Branches                   45877741                       # Number of branches that fetch encountered
system.new0.fetch.predictedBranches          24048310                       # Number of branches that fetch has predicted taken
system.new0.fetch.Cycles                     43498304                       # Number of cycles fetch has run and was not squashing or blocked
system.new0.fetch.SquashCycles                1835385                       # Number of cycles fetch has spent squashing
system.new0.fetch.MiscStallCycles               29954                       # Number of cycles fetch has spent waiting on interrupts, or bad addresses, or out of MSHRs
system.new0.fetch.CacheLines                 34042103                       # Number of cache lines fetched
system.new0.fetch.IcacheSquashes              1118415                       # Number of outstanding Icache misses that were squashed
system.new0.fetch.rateDist::samples         347269719                       # Number of instructions fetched each cycle (Total)
system.new0.fetch.rateDist::mean             0.608585                       # Number of instructions fetched each cycle (Total)
system.new0.fetch.rateDist::stdev            1.837635                       # Number of instructions fetched each cycle (Total)
system.new0.fetch.rateDist::underflows              0      0.00%      0.00% # Number of instructions fetched each cycle (Total)
system.new0.fetch.rateDist::0               303771415     87.47%     87.47% # Number of instructions fetched each cycle (Total)
system.new0.fetch.rateDist::1                 3645152      1.05%     88.52% # Number of instructions fetched each cycle (Total)
system.new0.fetch.rateDist::2                 6922815      1.99%     90.52% # Number of instructions fetched each cycle (Total)
system.new0.fetch.rateDist::3                 5678120      1.64%     92.15% # Number of instructions fetched each cycle (Total)
system.new0.fetch.rateDist::4                 5374741      1.55%     93.70% # Number of instructions fetched each cycle (Total)
system.new0.fetch.rateDist::5                 3524702      1.01%     94.72% # Number of instructions fetched each cycle (Total)
system.new0.fetch.rateDist::6                 3543657      1.02%     95.74% # Number of instructions fetched each cycle (Total)
system.new0.fetch.rateDist::7                 2039474      0.59%     96.32% # Number of instructions fetched each cycle (Total)
system.new0.fetch.rateDist::8                12769643      3.68%    100.00% # Number of instructions fetched each cycle (Total)
system.new0.fetch.rateDist::overflows               0      0.00%    100.00% # Number of instructions fetched each cycle (Total)
system.new0.fetch.rateDist::min_value               0                       # Number of instructions fetched each cycle (Total)
system.new0.fetch.rateDist::max_value               8                       # Number of instructions fetched each cycle (Total)
system.new0.fetch.rateDist::total           347269719                       # Number of instructions fetched each cycle (Total)
system.new0.fetch.branchRate                 0.108979                       # Number of branch fetches per cycle
system.new0.fetch.rate                       0.502030                       # Number of inst fetches per cycle
system.new0.decode.IdleCycles                91247629                       # Number of cycles decode is idle
system.new0.decode.BlockedCycles            208601864                       # Number of cycles decode is blocked
system.new0.decode.RunCycles                 43056228                       # Number of cycles decode is running
system.new0.decode.UnblockCycles               275929                       # Number of cycles decode is unblocking
system.new0.decode.SquashCycles               4088067                       # Number of cycles decode is squashing
system.new0.decode.BranchResolved             3970515                       # Number of times decode resolved a branch
system.new0.decode.BranchMispred                52535                       # Number of times decode detected a branch misprediction
system.new0.decode.DecodedInsts             210010807                       # Number of instructions handled by decode
system.new0.decode.SquashedInsts                77896                       # Number of squashed instructions handled by decode
system.new0.rename.SquashCycles               4088067                       # Number of cycles rename is squashing
system.new0.rename.IdleCycles                94222633                       # Number of cycles rename is idle
system.new0.rename.BlockCycles               33029478                       # Number of cycles rename is blocking
system.new0.rename.serializeStallCycles     167415968                       # count of cycles rename stalled for serializing inst
system.new0.rename.RunCycles                 40392540                       # Number of cycles rename is running
system.new0.rename.UnblockCycles              8121031                       # Number of cycles rename is unblocking
system.new0.rename.RenamedInsts             193153862                       # Number of instructions processed by rename
system.new0.rename.ROBFullEvents                   15                       # Number of times rename has blocked due to ROB full
system.new0.rename.IQFullEvents               1658945                       # Number of times rename has blocked due to IQ full
system.new0.rename.LSQFullEvents               270884                       # Number of times rename has blocked due to LSQ full
system.new0.rename.RenamedOperands          136477402                       # Number of destination operands rename has renamed
system.new0.rename.RenameLookups            235102259                       # Number of register rename lookups that rename has made
system.new0.rename.int_rename_lookups       233842859                       # Number of integer rename lookups
system.new0.rename.fp_rename_lookups          1259400                       # Number of floating rename lookups
system.new0.rename.CommittedMaps            119586032                       # Number of HB maps that are committed
system.new0.rename.UndoneMaps                16891370                       # Number of HB maps that are undone due to squashing
system.new0.rename.serializingInsts           6983079                       # count of serializing insts renamed
system.new0.rename.tempSerializingInsts        746419                       # count of temporary serializing insts renamed
system.new0.rename.skidInsts                 27848849                       # count of insts added to the skid buffer
system.new0.memDep0.insertedLoads            35382149                       # Number of loads inserted to the mem dependence unit.
system.new0.memDep0.insertedStores           21419776                       # Number of stores inserted to the mem dependence unit.
system.new0.memDep0.conflictingLoads         13948267                       # Number of conflicting loads.
system.new0.memDep0.conflictingStores         6897125                       # Number of conflicting stores.
system.new0.iq.iqInstsAdded                 178009080                       # Number of instructions added to the IQ (excludes non-spec)
system.new0.iq.iqNonSpecInstsAdded            9459695                       # Number of non-speculative instructions added to the IQ
system.new0.iq.iqInstsIssued                172498354                       # Number of instructions issued
system.new0.iq.iqSquashedInstsIssued          1955619                       # Number of squashed instructions issued
system.new0.iq.iqSquashedInstsExamined       26771537                       # Number of squashed instructions iterated over during squash; mainly for profiling
system.new0.iq.iqSquashedOperandsExamined     15603788                       # Number of squashed operands that are examined and possibly removed from graph
system.new0.iq.iqSquashedNonSpecRemoved       5723515                       # Number of squashed non-spec instructions that were removed
system.new0.iq.issued_per_cycle::samples    347269719                       # Number of insts issued each cycle
system.new0.iq.issued_per_cycle::mean        0.496727                       # Number of insts issued each cycle
system.new0.iq.issued_per_cycle::stdev       1.131366                       # Number of insts issued each cycle
system.new0.iq.issued_per_cycle::underflows            0      0.00%      0.00% # Number of insts issued each cycle
system.new0.iq.issued_per_cycle::0          264097923     76.05%     76.05% # Number of insts issued each cycle
system.new0.iq.issued_per_cycle::1           40752400     11.74%     87.78% # Number of insts issued each cycle
system.new0.iq.issued_per_cycle::2           20009017      5.76%     93.55% # Number of insts issued each cycle
system.new0.iq.issued_per_cycle::3            9160955      2.64%     96.18% # Number of insts issued each cycle
system.new0.iq.issued_per_cycle::4            6934513      2.00%     98.18% # Number of insts issued each cycle
system.new0.iq.issued_per_cycle::5            3053318      0.88%     99.06% # Number of insts issued each cycle
system.new0.iq.issued_per_cycle::6            1853494      0.53%     99.59% # Number of insts issued each cycle
system.new0.iq.issued_per_cycle::7            1145343      0.33%     99.92% # Number of insts issued each cycle
system.new0.iq.issued_per_cycle::8             262756      0.08%    100.00% # Number of insts issued each cycle
system.new0.iq.issued_per_cycle::overflows            0      0.00%    100.00% # Number of insts issued each cycle
system.new0.iq.issued_per_cycle::min_value            0                       # Number of insts issued each cycle
system.new0.iq.issued_per_cycle::max_value            8                       # Number of insts issued each cycle
system.new0.iq.issued_per_cycle::total      347269719                       # Number of insts issued each cycle
system.new0.iq.fu_full::No_OpClass                  0      0.00%      0.00% # attempts to use FU when none available
system.new0.iq.fu_full::IntAlu                 266241      8.15%      8.15% # attempts to use FU when none available
system.new0.iq.fu_full::IntMult                     0      0.00%      8.15% # attempts to use FU when none available
system.new0.iq.fu_full::IntDiv                      0      0.00%      8.15% # attempts to use FU when none available
system.new0.iq.fu_full::FloatAdd                   16      0.00%      8.15% # attempts to use FU when none available
system.new0.iq.fu_full::FloatCmp                    0      0.00%      8.15% # attempts to use FU when none available
system.new0.iq.fu_full::FloatCvt                  324      0.01%      8.16% # attempts to use FU when none available
system.new0.iq.fu_full::FloatMult                  39      0.00%      8.16% # attempts to use FU when none available
system.new0.iq.fu_full::FloatDiv                    0      0.00%      8.16% # attempts to use FU when none available
system.new0.iq.fu_full::FloatSqrt                   2      0.00%      8.16% # attempts to use FU when none available
system.new0.iq.fu_full::SimdAdd                     0      0.00%      8.16% # attempts to use FU when none available
system.new0.iq.fu_full::SimdAddAcc                  0      0.00%      8.16% # attempts to use FU when none available
system.new0.iq.fu_full::SimdAlu                     0      0.00%      8.16% # attempts to use FU when none available
system.new0.iq.fu_full::SimdCmp                     0      0.00%      8.16% # attempts to use FU when none available
system.new0.iq.fu_full::SimdCvt                     0      0.00%      8.16% # attempts to use FU when none available
system.new0.iq.fu_full::SimdMisc                    0      0.00%      8.16% # attempts to use FU when none available
system.new0.iq.fu_full::SimdMult                    0      0.00%      8.16% # attempts to use FU when none available
system.new0.iq.fu_full::SimdMultAcc                 0      0.00%      8.16% # attempts to use FU when none available
system.new0.iq.fu_full::SimdShift                   0      0.00%      8.16% # attempts to use FU when none available
system.new0.iq.fu_full::SimdShiftAcc                0      0.00%      8.16% # attempts to use FU when none available
system.new0.iq.fu_full::SimdSqrt                    0      0.00%      8.16% # attempts to use FU when none available
system.new0.iq.fu_full::SimdFloatAdd                0      0.00%      8.16% # attempts to use FU when none available
system.new0.iq.fu_full::SimdFloatAlu                0      0.00%      8.16% # attempts to use FU when none available
system.new0.iq.fu_full::SimdFloatCmp                0      0.00%      8.16% # attempts to use FU when none available
system.new0.iq.fu_full::SimdFloatCvt                0      0.00%      8.16% # attempts to use FU when none available
system.new0.iq.fu_full::SimdFloatDiv                0      0.00%      8.16% # attempts to use FU when none available
system.new0.iq.fu_full::SimdFloatMisc               0      0.00%      8.16% # attempts to use FU when none available
system.new0.iq.fu_full::SimdFloatMult               0      0.00%      8.16% # attempts to use FU when none available
system.new0.iq.fu_full::SimdFloatMultAcc            0      0.00%      8.16% # attempts to use FU when none available
system.new0.iq.fu_full::SimdFloatSqrt               0      0.00%      8.16% # attempts to use FU when none available
system.new0.iq.fu_full::MemRead               1640145     50.18%     58.34% # attempts to use FU when none available
system.new0.iq.fu_full::MemWrite              1361528     41.66%    100.00% # attempts to use FU when none available
system.new0.iq.fu_full::IprAccess                   0      0.00%    100.00% # attempts to use FU when none available
system.new0.iq.fu_full::InstPrefetch                0      0.00%    100.00% # attempts to use FU when none available
system.new0.iq.FU_type_0::No_OpClass             3600      0.00%      0.00% # Type of FU issued
system.new0.iq.FU_type_0::IntAlu            113723497     65.93%     65.93% # Type of FU issued
system.new0.iq.FU_type_0::IntMult              232134      0.13%     66.06% # Type of FU issued
system.new0.iq.FU_type_0::IntDiv                    0      0.00%     66.06% # Type of FU issued
system.new0.iq.FU_type_0::FloatAdd             228736      0.13%     66.20% # Type of FU issued
system.new0.iq.FU_type_0::FloatCmp              28147      0.02%     66.21% # Type of FU issued
system.new0.iq.FU_type_0::FloatCvt              29632      0.02%     66.23% # Type of FU issued
system.new0.iq.FU_type_0::FloatMult             96552      0.06%     66.29% # Type of FU issued
system.new0.iq.FU_type_0::FloatDiv               4108      0.00%     66.29% # Type of FU issued
system.new0.iq.FU_type_0::FloatSqrt              1033      0.00%     66.29% # Type of FU issued
system.new0.iq.FU_type_0::SimdAdd                   0      0.00%     66.29% # Type of FU issued
system.new0.iq.FU_type_0::SimdAddAcc                0      0.00%     66.29% # Type of FU issued
system.new0.iq.FU_type_0::SimdAlu                   0      0.00%     66.29% # Type of FU issued
system.new0.iq.FU_type_0::SimdCmp                   0      0.00%     66.29% # Type of FU issued
system.new0.iq.FU_type_0::SimdCvt                   0      0.00%     66.29% # Type of FU issued
system.new0.iq.FU_type_0::SimdMisc                  0      0.00%     66.29% # Type of FU issued
system.new0.iq.FU_type_0::SimdMult                  0      0.00%     66.29% # Type of FU issued
system.new0.iq.FU_type_0::SimdMultAcc               0      0.00%     66.29% # Type of FU issued
system.new0.iq.FU_type_0::SimdShift                 0      0.00%     66.29% # Type of FU issued
system.new0.iq.FU_type_0::SimdShiftAcc              0      0.00%     66.29% # Type of FU issued
system.new0.iq.FU_type_0::SimdSqrt                  0      0.00%     66.29% # Type of FU issued
system.new0.iq.FU_type_0::SimdFloatAdd              0      0.00%     66.29% # Type of FU issued
system.new0.iq.FU_type_0::SimdFloatAlu              0      0.00%     66.29% # Type of FU issued
system.new0.iq.FU_type_0::SimdFloatCmp              0      0.00%     66.29% # Type of FU issued
system.new0.iq.FU_type_0::SimdFloatCvt              0      0.00%     66.29% # Type of FU issued
system.new0.iq.FU_type_0::SimdFloatDiv              0      0.00%     66.29% # Type of FU issued
system.new0.iq.FU_type_0::SimdFloatMisc             0      0.00%     66.29% # Type of FU issued
system.new0.iq.FU_type_0::SimdFloatMult             0      0.00%     66.29% # Type of FU issued
system.new0.iq.FU_type_0::SimdFloatMultAcc            0      0.00%     66.29% # Type of FU issued
system.new0.iq.FU_type_0::SimdFloatSqrt             0      0.00%     66.29% # Type of FU issued
system.new0.iq.FU_type_0::MemRead            35655706     20.67%     86.96% # Type of FU issued
system.new0.iq.FU_type_0::MemWrite           18465702     10.70%     97.66% # Type of FU issued
system.new0.iq.FU_type_0::IprAccess           4029507      2.34%    100.00% # Type of FU issued
system.new0.iq.FU_type_0::InstPrefetch              0      0.00%    100.00% # Type of FU issued
system.new0.iq.FU_type_0::total             172498354                       # Type of FU issued
system.new0.iq.rate                          0.409757                       # Inst issue rate
system.new0.iq.fu_busy_cnt                    3268295                       # FU busy when requested
system.new0.iq.fu_busy_rate                  0.018947                       # FU busy rate (busy events/executed inst)
system.new0.iq.int_inst_queue_reads         695946469                       # Number of integer instruction queue reads
system.new0.iq.int_inst_queue_writes        213678485                       # Number of integer instruction queue writes
system.new0.iq.int_inst_queue_wakeup_accesses    169800519                       # Number of integer instruction queue wakeup accesses
system.new0.iq.fp_inst_queue_reads            1543872                       # Number of floating instruction queue reads
system.new0.iq.fp_inst_queue_writes            825310                       # Number of floating instruction queue writes
system.new0.iq.fp_inst_queue_wakeup_accesses       766554                       # Number of floating instruction queue wakeup accesses
system.new0.iq.int_alu_accesses             174987730                       # Number of integer alu accesses
system.new0.iq.fp_alu_accesses                 775319                       # Number of floating point alu accesses
system.new0.iew.lsq.thread0.forwLoads          626289                       # Number of loads that had data forwarded from stores
system.new0.iew.lsq.thread0.invAddrLoads            0                       # Number of loads ignored due to an invalid address
system.new0.iew.lsq.thread0.squashedLoads      4824478                       # Number of loads squashed
system.new0.iew.lsq.thread0.ignoredResponses        18815                       # Number of memory responses ignored because the instruction is squashed
system.new0.iew.lsq.thread0.memOrderViolation       263641                       # Number of memory ordering violations
system.new0.iew.lsq.thread0.squashedStores      4264506                       # Number of stores squashed
system.new0.iew.lsq.thread0.invAddrSwpfs            0                       # Number of software prefetches ignored due to an invalid address
system.new0.iew.lsq.thread0.blockedLoads            0                       # Number of blocked loads due to partial load-store forwarding
system.new0.iew.lsq.thread0.rescheduledLoads       545361                       # Number of loads that were rescheduled
system.new0.iew.lsq.thread0.cacheBlocked        41257                       # Number of times an access to memory failed due to the cache being blocked
system.new0.iew.iewIdleCycles                       0                       # Number of cycles IEW is idle
system.new0.iew.iewSquashCycles               4088067                       # Number of cycles IEW is squashing
system.new0.iew.iewBlockCycles               29944994                       # Number of cycles IEW is blocking
system.new0.iew.iewUnblockCycles               529769                       # Number of cycles IEW is unblocking
system.new0.iew.iewDispatchedInsts          189010833                       # Number of instructions dispatched to IQ
system.new0.iew.iewDispSquashedInsts          1956624                       # Number of squashed instructions skipped by dispatch
system.new0.iew.iewDispLoadInsts             35382149                       # Number of dispatched load instructions
system.new0.iew.iewDispStoreInsts            21419776                       # Number of dispatched store instructions
system.new0.iew.iewDispNonSpecInsts           6782582                       # Number of dispatched non-speculative instructions
system.new0.iew.iewIQFullEvents                510843                       # Number of times the IQ has become full, causing a stall
system.new0.iew.iewLSQFullEvents                 1433                       # Number of times the LSQ has become full, causing a stall
system.new0.iew.memOrderViolationEvents        263641                       # Number of memory order violations
system.new0.iew.predictedTakenIncorrect        498890                       # Number of branches that were predicted taken incorrectly
system.new0.iew.predictedNotTakenIncorrect      1021273                       # Number of branches that were predicted not taken incorrectly
system.new0.iew.branchMispredicts             1520163                       # Number of branch mispredicts detected at execute
system.new0.iew.iewExecutedInsts            171726674                       # Number of executed instructions
system.new0.iew.iewExecLoadInsts             33362520                       # Number of load instructions executed
system.new0.iew.iewExecSquashedInsts           771680                       # Number of squashed instructions skipped in execute
system.new0.iew.exec_swp                            0                       # number of swp insts executed
system.new0.iew.exec_nop                      1542058                       # number of nop insts executed
system.new0.iew.exec_refs                    51431565                       # number of memory reference insts executed
system.new0.iew.exec_branches                27895205                       # Number of branches executed
system.new0.iew.exec_stores                  18069045                       # Number of stores executed
system.new0.iew.exec_rate                    0.407924                       # Inst execution rate
system.new0.iew.wb_sent                     171143086                       # cumulative count of insts sent to commit
system.new0.iew.wb_count                    170567073                       # cumulative count of insts written-back
system.new0.iew.wb_producers                 80142527                       # num instructions producing a value
system.new0.iew.wb_consumers                105627274                       # num instructions consuming a value
system.new0.iew.wb_penalized                        0                       # number of instrctions required to write to 'other' IQ
system.new0.iew.wb_rate                      0.405170                       # insts written-back per cycle
system.new0.iew.wb_fanout                    0.758729                       # average fanout of values written-back
system.new0.iew.wb_penalized_rate                   0                       # fraction of instructions written-back that wrote to 'other' IQ
system.new0.commit.commitCommittedInsts     161475214                       # The number of committed instructions
system.new0.commit.commitSquashedInsts       26532879                       # The number of squashed insts skipped by commit
system.new0.commit.commitNonSpecStalls        3736180                       # The number of times commit has been forced to stall to communicate backwards
system.new0.commit.branchMispredicts          1412331                       # The number of times a branch was mispredicted
system.new0.commit.committed_per_cycle::samples    343181652                       # Number of insts commited each cycle
system.new0.commit.committed_per_cycle::mean     0.470524                       # Number of insts commited each cycle
system.new0.commit.committed_per_cycle::stdev     1.275607                       # Number of insts commited each cycle
system.new0.commit.committed_per_cycle::underflows            0      0.00%      0.00% # Number of insts commited each cycle
system.new0.commit.committed_per_cycle::0    274010727     79.84%     79.84% # Number of insts commited each cycle
system.new0.commit.committed_per_cycle::1     32495448      9.47%     89.31% # Number of insts commited each cycle
system.new0.commit.committed_per_cycle::2     17591694      5.13%     94.44% # Number of insts commited each cycle
system.new0.commit.committed_per_cycle::3      6677641      1.95%     96.38% # Number of insts commited each cycle
system.new0.commit.committed_per_cycle::4      3697867      1.08%     97.46% # Number of insts commited each cycle
system.new0.commit.committed_per_cycle::5      2147561      0.63%     98.09% # Number of insts commited each cycle
system.new0.commit.committed_per_cycle::6      1232577      0.36%     98.45% # Number of insts commited each cycle
system.new0.commit.committed_per_cycle::7      1786376      0.52%     98.97% # Number of insts commited each cycle
system.new0.commit.committed_per_cycle::8      3541761      1.03%    100.00% # Number of insts commited each cycle
system.new0.commit.committed_per_cycle::overflows            0      0.00%    100.00% # Number of insts commited each cycle
system.new0.commit.committed_per_cycle::min_value            0                       # Number of insts commited each cycle
system.new0.commit.committed_per_cycle::max_value            8                       # Number of insts commited each cycle
system.new0.commit.committed_per_cycle::total    343181652                       # Number of insts commited each cycle
system.new0.commit.count                    161475214                       # Number of instructions committed
system.new0.commit.swp_count                        0                       # Number of s/w prefetches committed
system.new0.commit.refs                      47712941                       # Number of memory references committed
system.new0.commit.loads                     30557671                       # Number of loads committed
system.new0.commit.membars                    2152060                       # Number of memory barriers committed
system.new0.commit.branches                  26297749                       # Number of branches committed
system.new0.commit.fp_insts                    749260                       # Number of committed floating point instructions.
system.new0.commit.int_insts                154834213                       # Number of committed integer instructions.
system.new0.commit.function_calls             6233617                       # Number of function calls committed.
system.new0.commit.bw_lim_events              3541761                       # number cycles where commit BW limit reached
system.new0.commit.bw_limited                       0                       # number of insts not committed due to BW limits
system.new0.rob.rob_reads                   526469456                       # The number of ROB reads
system.new0.rob.rob_writes                  380023866                       # The number of ROB writes
system.new0.timesIdled                        1151653                       # Number of times that the entire CPU went into an idle state and unscheduled itself
system.new0.idleCycles                       73707189                       # Total number of cycles that the CPU has spent unscheduled due to idling
system.new0.committedInsts                  160329810                       # Number of Instructions Simulated
system.new0.committedInsts_total            160329810                       # Number of Instructions Simulated
system.new0.cpi                              2.625693                       # CPI: Cycles Per Instruction
system.new0.cpi_total                        2.625693                       # CPI: Total CPI of All Threads
system.new0.ipc                              0.380852                       # IPC: Instructions Per Cycle
system.new0.ipc_total                        0.380852                       # IPC: Total IPC of All Threads
system.new0.int_regfile_reads               214018656                       # number of integer regfile reads
system.new0.int_regfile_writes              127020930                       # number of integer regfile writes
system.new0.fp_regfile_reads                   832127                       # number of floating regfile reads
system.new0.fp_regfile_writes                  585802                       # number of floating regfile writes
system.new0.misc_regfile_reads             1135079853                       # number of misc regfile reads
system.new0.misc_regfile_writes               3615066                       # number of misc regfile writes
system.new1.dtb.fetch_hits                          0                       # ITB hits
system.new1.dtb.fetch_misses                        0                       # ITB misses
system.new1.dtb.fetch_acv                           0                       # ITB acv
system.new1.dtb.fetch_accesses                      0                       # ITB accesses
system.new1.dtb.read_hits                      462925                       # DTB read hits
system.new1.dtb.read_misses                      1008                       # DTB read misses
system.new1.dtb.read_acv                           14                       # DTB read access violations
system.new1.dtb.read_accesses                  309432                       # DTB read accesses
system.new1.dtb.write_hits                     219401                       # DTB write hits
system.new1.dtb.write_misses                      185                       # DTB write misses
system.new1.dtb.write_acv                          31                       # DTB write access violations
system.new1.dtb.write_accesses                 136754                       # DTB write accesses
system.new1.dtb.data_hits                      682326                       # DTB hits
system.new1.dtb.data_misses                      1193                       # DTB misses
system.new1.dtb.data_acv                           45                       # DTB access violations
system.new1.dtb.data_accesses                  446186                       # DTB accesses
system.new1.itb.fetch_hits                     152983                       # ITB hits
system.new1.itb.fetch_misses                      401                       # ITB misses
system.new1.itb.fetch_acv                          87                       # ITB acv
system.new1.itb.fetch_accesses                 153384                       # ITB accesses
system.new1.itb.read_hits                           0                       # DTB read hits
system.new1.itb.read_misses                         0                       # DTB read misses
system.new1.itb.read_acv                            0                       # DTB read access violations
system.new1.itb.read_accesses                       0                       # DTB read accesses
system.new1.itb.write_hits                          0                       # DTB write hits
system.new1.itb.write_misses                        0                       # DTB write misses
system.new1.itb.write_acv                           0                       # DTB write access violations
system.new1.itb.write_accesses                      0                       # DTB write accesses
system.new1.itb.data_hits                           0                       # DTB hits
system.new1.itb.data_misses                         0                       # DTB misses
system.new1.itb.data_acv                            0                       # DTB access violations
system.new1.itb.data_accesses                       0                       # DTB accesses
system.new1.numCycles                         2127500                       # number of cpu cycles simulated
system.new1.numWorkItemsStarted                     0                       # number of work items this cpu started
system.new1.numWorkItemsCompleted                   0                       # number of work items this cpu completed
system.new1.BPredUnit.lookups                  291880                       # Number of BP lookups
system.new1.BPredUnit.condPredicted            220175                       # Number of conditional branches predicted
system.new1.BPredUnit.condIncorrect              9387                       # Number of conditional branches incorrect
system.new1.BPredUnit.BTBLookups               248481                       # Number of BTB lookups
system.new1.BPredUnit.BTBHits                  113515                       # Number of BTB hits
system.new1.BPredUnit.BTBCorrect                    0                       # Number of correct BTB predictions (this stat may not work properly.
system.new1.BPredUnit.usedRAS                   28578                       # Number of times the RAS was used to get a target.
system.new1.BPredUnit.RASInCorrect                829                       # Number of incorrect RAS predictions.
system.new1.fetch.icacheStallCycles            257947                       # Number of cycles fetch is stalled on an Icache miss
system.new1.fetch.Insts                       2240108                       # Number of instructions fetch has processed
system.new1.fetch.Branches                     291880                       # Number of branches that fetch encountered
system.new1.fetch.predictedBranches            142093                       # Number of branches that fetch has predicted taken
system.new1.fetch.Cycles                       385901                       # Number of cycles fetch has run and was not squashing or blocked
system.new1.fetch.SquashCycles                  25440                       # Number of cycles fetch has spent squashing
system.new1.fetch.MiscStallCycles                 597                       # Number of cycles fetch has spent waiting on interrupts, or bad addresses, or out of MSHRs
system.new1.fetch.CacheLines                   257975                       # Number of cache lines fetched
system.new1.fetch.IcacheSquashes                 9434                       # Number of outstanding Icache misses that were squashed
system.new1.fetch.rateDist::samples           1864977                       # Number of instructions fetched each cycle (Total)
system.new1.fetch.rateDist::mean             1.201145                       # Number of instructions fetched each cycle (Total)
system.new1.fetch.rateDist::stdev            2.615779                       # Number of instructions fetched each cycle (Total)
system.new1.fetch.rateDist::underflows              0      0.00%      0.00% # Number of instructions fetched each cycle (Total)
system.new1.fetch.rateDist::0                 1479076     79.31%     79.31% # Number of instructions fetched each cycle (Total)
system.new1.fetch.rateDist::1                   26821      1.44%     80.75% # Number of instructions fetched each cycle (Total)
system.new1.fetch.rateDist::2                   34805      1.87%     82.61% # Number of instructions fetched each cycle (Total)
system.new1.fetch.rateDist::3                   27866      1.49%     84.11% # Number of instructions fetched each cycle (Total)
system.new1.fetch.rateDist::4                   44224      2.37%     86.48% # Number of instructions fetched each cycle (Total)
system.new1.fetch.rateDist::5                   25850      1.39%     87.86% # Number of instructions fetched each cycle (Total)
system.new1.fetch.rateDist::6                   23256      1.25%     89.11% # Number of instructions fetched each cycle (Total)
system.new1.fetch.rateDist::7                   10235      0.55%     89.66% # Number of instructions fetched each cycle (Total)
system.new1.fetch.rateDist::8                  192844     10.34%    100.00% # Number of instructions fetched each cycle (Total)
system.new1.fetch.rateDist::overflows               0      0.00%    100.00% # Number of instructions fetched each cycle (Total)
system.new1.fetch.rateDist::min_value               0                       # Number of instructions fetched each cycle (Total)
system.new1.fetch.rateDist::max_value               8                       # Number of instructions fetched each cycle (Total)
system.new1.fetch.rateDist::total             1864977                       # Number of instructions fetched each cycle (Total)
system.new1.fetch.branchRate                 0.137194                       # Number of branch fetches per cycle
system.new1.fetch.rate                       1.052930                       # Number of inst fetches per cycle
system.new1.decode.IdleCycles                  678407                       # Number of cycles decode is idle
system.new1.decode.BlockedCycles               756064                       # Number of cycles decode is blocked
system.new1.decode.RunCycles                   374841                       # Number of cycles decode is running
system.new1.decode.UnblockCycles                 6456                       # Number of cycles decode is unblocking
system.new1.decode.SquashCycles                 49208                       # Number of cycles decode is squashing
system.new1.decode.BranchResolved               30673                       # Number of times decode resolved a branch
system.new1.decode.BranchMispred                 1134                       # Number of times decode detected a branch misprediction
system.new1.decode.DecodedInsts               2202174                       # Number of instructions handled by decode
system.new1.decode.SquashedInsts                 4527                       # Number of squashed instructions handled by decode
system.new1.rename.SquashCycles                 49208                       # Number of cycles rename is squashing
system.new1.rename.IdleCycles                  707451                       # Number of cycles rename is idle
system.new1.rename.BlockCycles                 183965                       # Number of cycles rename is blocking
system.new1.rename.serializeStallCycles        420434                       # count of cycles rename stalled for serializing inst
system.new1.rename.RunCycles                   350847                       # Number of cycles rename is running
system.new1.rename.UnblockCycles               153071                       # Number of cycles rename is unblocking
system.new1.rename.RenamedInsts               2105020                       # Number of instructions processed by rename
system.new1.rename.ROBFullEvents                    7                       # Number of times rename has blocked due to ROB full
system.new1.rename.IQFullEvents                 10560                       # Number of times rename has blocked due to IQ full
system.new1.rename.LSQFullEvents               102967                       # Number of times rename has blocked due to LSQ full
system.new1.rename.RenamedOperands            1561159                       # Number of destination operands rename has renamed
system.new1.rename.RenameLookups              2790821                       # Number of register rename lookups that rename has made
system.new1.rename.int_rename_lookups         1659271                       # Number of integer rename lookups
system.new1.rename.fp_rename_lookups          1131550                       # Number of floating rename lookups
system.new1.rename.CommittedMaps              1348006                       # Number of HB maps that are committed
system.new1.rename.UndoneMaps                  213153                       # Number of HB maps that are undone due to squashing
system.new1.rename.serializingInsts             40363                       # count of serializing insts renamed
system.new1.rename.tempSerializingInsts          2421                       # count of temporary serializing insts renamed
system.new1.rename.skidInsts                   331360                       # count of insts added to the skid buffer
system.new1.memDep0.insertedLoads              475209                       # Number of loads inserted to the mem dependence unit.
system.new1.memDep0.insertedStores             266990                       # Number of stores inserted to the mem dependence unit.
system.new1.memDep0.conflictingLoads           132564                       # Number of conflicting loads.
system.new1.memDep0.conflictingStores           48972                       # Number of conflicting stores.
system.new1.iq.iqInstsAdded                   1941188                       # Number of instructions added to the IQ (excludes non-spec)
system.new1.iq.iqNonSpecInstsAdded              46706                       # Number of non-speculative instructions added to the IQ
system.new1.iq.iqInstsIssued                  1856368                       # Number of instructions issued
system.new1.iq.iqSquashedInstsIssued              873                       # Number of squashed instructions issued
system.new1.iq.iqSquashedInstsExamined         283636                       # Number of squashed instructions iterated over during squash; mainly for profiling
system.new1.iq.iqSquashedOperandsExamined       204912                       # Number of squashed operands that are examined and possibly removed from graph
system.new1.iq.iqSquashedNonSpecRemoved         35689                       # Number of squashed non-spec instructions that were removed
system.new1.iq.issued_per_cycle::samples      1864977                       # Number of insts issued each cycle
system.new1.iq.issued_per_cycle::mean        0.995384                       # Number of insts issued each cycle
system.new1.iq.issued_per_cycle::stdev       1.414228                       # Number of insts issued each cycle
system.new1.iq.issued_per_cycle::underflows            0      0.00%      0.00% # Number of insts issued each cycle
system.new1.iq.issued_per_cycle::0            1013812     54.36%     54.36% # Number of insts issued each cycle
system.new1.iq.issued_per_cycle::1             357930     19.19%     73.55% # Number of insts issued each cycle
system.new1.iq.issued_per_cycle::2             210111     11.27%     84.82% # Number of insts issued each cycle
system.new1.iq.issued_per_cycle::3             138932      7.45%     92.27% # Number of insts issued each cycle
system.new1.iq.issued_per_cycle::4              84410      4.53%     96.79% # Number of insts issued each cycle
system.new1.iq.issued_per_cycle::5              39630      2.12%     98.92% # Number of insts issued each cycle
system.new1.iq.issued_per_cycle::6              15909      0.85%     99.77% # Number of insts issued each cycle
system.new1.iq.issued_per_cycle::7               3768      0.20%     99.97% # Number of insts issued each cycle
system.new1.iq.issued_per_cycle::8                475      0.03%    100.00% # Number of insts issued each cycle
system.new1.iq.issued_per_cycle::overflows            0      0.00%    100.00% # Number of insts issued each cycle
system.new1.iq.issued_per_cycle::min_value            0                       # Number of insts issued each cycle
system.new1.iq.issued_per_cycle::max_value            8                       # Number of insts issued each cycle
system.new1.iq.issued_per_cycle::total        1864977                       # Number of insts issued each cycle
system.new1.iq.fu_full::No_OpClass                  0      0.00%      0.00% # attempts to use FU when none available
system.new1.iq.fu_full::IntAlu                    135      0.60%      0.60% # attempts to use FU when none available
system.new1.iq.fu_full::IntMult                     0      0.00%      0.60% # attempts to use FU when none available
system.new1.iq.fu_full::IntDiv                      0      0.00%      0.60% # attempts to use FU when none available
system.new1.iq.fu_full::FloatAdd                   31      0.14%      0.74% # attempts to use FU when none available
system.new1.iq.fu_full::FloatCmp                    0      0.00%      0.74% # attempts to use FU when none available
system.new1.iq.fu_full::FloatCvt                  326      1.46%      2.20% # attempts to use FU when none available
system.new1.iq.fu_full::FloatMult                  35      0.16%      2.36% # attempts to use FU when none available
system.new1.iq.fu_full::FloatDiv                    0      0.00%      2.36% # attempts to use FU when none available
system.new1.iq.fu_full::FloatSqrt                   2      0.01%      2.37% # attempts to use FU when none available
system.new1.iq.fu_full::SimdAdd                     0      0.00%      2.37% # attempts to use FU when none available
system.new1.iq.fu_full::SimdAddAcc                  0      0.00%      2.37% # attempts to use FU when none available
system.new1.iq.fu_full::SimdAlu                     0      0.00%      2.37% # attempts to use FU when none available
system.new1.iq.fu_full::SimdCmp                     0      0.00%      2.37% # attempts to use FU when none available
system.new1.iq.fu_full::SimdCvt                     0      0.00%      2.37% # attempts to use FU when none available
system.new1.iq.fu_full::SimdMisc                    0      0.00%      2.37% # attempts to use FU when none available
system.new1.iq.fu_full::SimdMult                    0      0.00%      2.37% # attempts to use FU when none available
system.new1.iq.fu_full::SimdMultAcc                 0      0.00%      2.37% # attempts to use FU when none available
system.new1.iq.fu_full::SimdShift                   0      0.00%      2.37% # attempts to use FU when none available
[...]
system.cpu3.dcache.overall_miss_latency     146844996                       # number of overall miss cycles
system.cpu3.dcache.ReadReq_accesses::0         300991                       # number of ReadReq accesses(hits+misses)
system.cpu3.dcache.ReadReq_accesses::total       300991                       # number of ReadReq accesses(hits+misses)
system.cpu3.dcache.WriteReq_accesses::0        173856                       # number of WriteReq accesses(hits+misses)
system.cpu3.dcache.WriteReq_accesses::total       173856                       # number of WriteReq accesses(hits+misses)
system.cpu3.dcache.LoadLockedReq_accesses::0         1026                       # number of LoadLockedReq accesses(hits+misses)
system.cpu3.dcache.LoadLockedReq_accesses::total         1026                       # number of LoadLockedReq accesses(hits+misses)
system.cpu3.dcache.StoreCondReq_accesses::0          969                       # number of StoreCondReq accesses(hits+misses)
system.cpu3.dcache.StoreCondReq_accesses::total          969                       # number of StoreCondReq accesses(hits+misses)
system.cpu3.dcache.demand_accesses::0          474847                       # number of demand (read+write) accesses
system.cpu3.dcache.demand_accesses::1               0                       # number of demand (read+write) accesses
system.cpu3.dcache.demand_accesses::total       474847                       # number of demand (read+write) accesses
system.cpu3.dcache.overall_accesses::0         474847                       # number of overall (read+write) accesses
system.cpu3.dcache.overall_accesses::1              0                       # number of overall (read+write) accesses
system.cpu3.dcache.overall_accesses::total       474847                       # number of overall (read+write) accesses
system.cpu3.dcache.ReadReq_miss_rate::0      0.013140                       # miss rate for ReadReq accesses
system.cpu3.dcache.WriteReq_miss_rate::0     0.008858                       # miss rate for WriteReq accesses
system.cpu3.dcache.LoadLockedReq_miss_rate::0     0.105263                       # miss rate for LoadLockedReq accesses
system.cpu3.dcache.StoreCondReq_miss_rate::0     0.103199                       # miss rate for StoreCondReq accesses
system.cpu3.dcache.demand_miss_rate::0       0.011572                       # miss rate for demand accesses
system.cpu3.dcache.demand_miss_rate::1       no_value                       # miss rate for demand accesses
system.cpu3.dcache.demand_miss_rate::total     no_value                       # miss rate for demand accesses
system.cpu3.dcache.overall_miss_rate::0      0.011572                       # miss rate for overall accesses
system.cpu3.dcache.overall_miss_rate::1      no_value                       # miss rate for overall accesses
system.cpu3.dcache.overall_miss_rate::total     no_value                       # miss rate for overall accesses
system.cpu3.dcache.ReadReq_avg_miss_latency::0 25994.943110                       # average ReadReq miss latency
system.cpu3.dcache.ReadReq_avg_miss_latency::1          inf                       # average ReadReq miss latency
system.cpu3.dcache.ReadReq_avg_miss_latency::total          inf                       # average ReadReq miss latency
system.cpu3.dcache.WriteReq_avg_miss_latency::0 28594.153247                       # average WriteReq miss latency
system.cpu3.dcache.WriteReq_avg_miss_latency::1          inf                       # average WriteReq miss latency
system.cpu3.dcache.WriteReq_avg_miss_latency::total          inf                       # average WriteReq miss latency
system.cpu3.dcache.LoadLockedReq_avg_miss_latency::0 16523.148148                       # average LoadLockedReq miss latency
system.cpu3.dcache.LoadLockedReq_avg_miss_latency::1          inf                       # average LoadLockedReq miss latency
system.cpu3.dcache.LoadLockedReq_avg_miss_latency::total          inf                       # average LoadLockedReq miss latency
system.cpu3.dcache.StoreCondReq_avg_miss_latency::0        14355                       # average StoreCondReq miss latency
system.cpu3.dcache.StoreCondReq_avg_miss_latency::1          inf                       # average StoreCondReq miss latency
system.cpu3.dcache.StoreCondReq_avg_miss_latency::total          inf                       # average StoreCondReq miss latency
system.cpu3.dcache.demand_avg_miss_latency::0 26723.384167                       # average overall miss latency
system.cpu3.dcache.demand_avg_miss_latency::1          inf                       # average overall miss latency
system.cpu3.dcache.demand_avg_miss_latency::total          inf                       # average overall miss latency
system.cpu3.dcache.overall_avg_miss_latency::0 26723.384167                       # average overall miss latency
system.cpu3.dcache.overall_avg_miss_latency::1          inf                       # average overall miss latency
system.cpu3.dcache.overall_avg_miss_latency::total          inf                       # average overall miss latency
system.cpu3.dcache.blocked_cycles::no_mshrs            0                       # number of cycles access was blocked
system.cpu3.dcache.blocked_cycles::no_targets      5862000                       # number of cycles access was blocked
system.cpu3.dcache.blocked::no_mshrs                0                       # number of cycles access was blocked
system.cpu3.dcache.blocked::no_targets            211                       # number of cycles access was blocked
system.cpu3.dcache.avg_blocked_cycles::no_mshrs     no_value                       # average number of cycles each access was blocked
system.cpu3.dcache.avg_blocked_cycles::no_targets 27781.990521                       # average number of cycles each access was blocked
system.cpu3.dcache.fast_writes                      0                       # number of fast writes performed
system.cpu3.dcache.cache_copies                     0                       # number of cache copies performed
system.cpu3.dcache.writebacks                     635                       # number of writebacks
system.cpu3.dcache.ReadReq_mshr_hits              959                       # number of ReadReq MSHR hits
system.cpu3.dcache.WriteReq_mshr_hits             897                       # number of WriteReq MSHR hits
system.cpu3.dcache.LoadLockedReq_mshr_hits           12                       # number of LoadLockedReq MSHR hits
system.cpu3.dcache.demand_mshr_hits              1856                       # number of demand (read+write) MSHR hits
system.cpu3.dcache.overall_mshr_hits             1856                       # number of overall MSHR hits
system.cpu3.dcache.ReadReq_mshr_misses           2996                       # number of ReadReq MSHR misses
system.cpu3.dcache.WriteReq_mshr_misses           643                       # number of WriteReq MSHR misses
system.cpu3.dcache.LoadLockedReq_mshr_misses           96                       # number of LoadLockedReq MSHR misses
system.cpu3.dcache.StoreCondReq_mshr_misses           99                       # number of StoreCondReq MSHR misses
system.cpu3.dcache.demand_mshr_misses            3639                       # number of demand (read+write) MSHR misses
system.cpu3.dcache.overall_mshr_misses           3639                       # number of overall MSHR misses
system.cpu3.dcache.overall_mshr_uncacheable_misses            0                       # number of overall MSHR uncacheable misses
system.cpu3.dcache.ReadReq_mshr_miss_latency     72179000                       # number of ReadReq MSHR miss cycles
system.cpu3.dcache.WriteReq_mshr_miss_latency     14648996                       # number of WriteReq MSHR miss cycles
system.cpu3.dcache.LoadLockedReq_mshr_miss_latency      1271500                       # number of LoadLockedReq MSHR miss cycles
system.cpu3.dcache.StoreCondReq_mshr_miss_latency      1129500                       # number of StoreCondReq MSHR miss cycles
system.cpu3.dcache.demand_mshr_miss_latency     86827996                       # number of demand (read+write) MSHR miss cycles
system.cpu3.dcache.overall_mshr_miss_latency     86827996                       # number of overall MSHR miss cycles
system.cpu3.dcache.ReadReq_mshr_uncacheable_latency       409500                       # number of ReadReq MSHR uncacheable cycles
system.cpu3.dcache.WriteReq_mshr_uncacheable_latency     30957000                       # number of WriteReq MSHR uncacheable cycles
system.cpu3.dcache.overall_mshr_uncacheable_latency     31366500                       # number of overall MSHR uncacheable cycles
system.cpu3.dcache.ReadReq_mshr_miss_rate::0     0.009954                       # mshr miss rate for ReadReq accesses
system.cpu3.dcache.ReadReq_mshr_miss_rate::1          inf                       # mshr miss rate for ReadReq accesses
system.cpu3.dcache.ReadReq_mshr_miss_rate::total          inf                       # mshr miss rate for ReadReq accesses
system.cpu3.dcache.WriteReq_mshr_miss_rate::0     0.003698                       # mshr miss rate for WriteReq accesses
system.cpu3.dcache.WriteReq_mshr_miss_rate::1          inf                       # mshr miss rate for WriteReq accesses
system.cpu3.dcache.WriteReq_mshr_miss_rate::total          inf                       # mshr miss rate for WriteReq accesses
system.cpu3.dcache.LoadLockedReq_mshr_miss_rate::0     0.093567                       # mshr miss rate for LoadLockedReq accesses
system.cpu3.dcache.LoadLockedReq_mshr_miss_rate::1          inf                       # mshr miss rate for LoadLockedReq accesses
system.cpu3.dcache.LoadLockedReq_mshr_miss_rate::total          inf                       # mshr miss rate for LoadLockedReq accesses
system.cpu3.dcache.StoreCondReq_mshr_miss_rate::0     0.102167                       # mshr miss rate for StoreCondReq accesses
system.cpu3.dcache.StoreCondReq_mshr_miss_rate::1          inf                       # mshr miss rate for StoreCondReq accesses
system.cpu3.dcache.StoreCondReq_mshr_miss_rate::total          inf                       # mshr miss rate for StoreCondReq accesses
system.cpu3.dcache.demand_mshr_miss_rate::0     0.007664                       # mshr miss rate for demand accesses
system.cpu3.dcache.demand_mshr_miss_rate::1          inf                       # mshr miss rate for demand accesses
system.cpu3.dcache.demand_mshr_miss_rate::total          inf                       # mshr miss rate for demand accesses
system.cpu3.dcache.overall_mshr_miss_rate::0     0.007664                       # mshr miss rate for overall accesses
system.cpu3.dcache.overall_mshr_miss_rate::1          inf                       # mshr miss rate for overall accesses
system.cpu3.dcache.overall_mshr_miss_rate::total          inf                       # mshr miss rate for overall accesses
system.cpu3.dcache.ReadReq_avg_mshr_miss_latency 24091.789052                       # average ReadReq mshr miss latency
system.cpu3.dcache.WriteReq_avg_mshr_miss_latency 22782.264386                       # average WriteReq mshr miss latency
system.cpu3.dcache.LoadLockedReq_avg_mshr_miss_latency 13244.791667                       # average LoadLockedReq mshr miss latency
system.cpu3.dcache.StoreCondReq_avg_mshr_miss_latency 11409.090909                       # average StoreCondReq mshr miss latency
system.cpu3.dcache.demand_avg_mshr_miss_latency 23860.400110                       # average overall mshr miss latency
system.cpu3.dcache.overall_avg_mshr_miss_latency 23860.400110                       # average overall mshr miss latency
system.cpu3.dcache.ReadReq_avg_mshr_uncacheable_latency          inf                       # average ReadReq mshr uncacheable latency
system.cpu3.dcache.WriteReq_avg_mshr_uncacheable_latency          inf                       # average WriteReq mshr uncacheable latency
system.cpu3.dcache.overall_avg_mshr_uncacheable_latency          inf                       # average overall mshr uncacheable latency
system.cpu3.dcache.mshr_cap_events                  0                       # number of times MSHR cap was activated
system.cpu3.dcache.soft_prefetch_mshr_full            0                       # number of mshr full events for SW prefetching instrutions
system.cpu3.dcache.no_allocate_misses               0                       # Number of misses that were no-allocate
system.new0.kern.inst.arm                           0                       # number of arm instructions executed
system.new0.kern.inst.quiesce                       0                       # number of quiesce instructions executed
system.new0.kern.inst.hwrei                         0                       # number of hwrei instructions executed
system.new0.kern.mode_switch::kernel                0                       # number of protection mode switches
system.new0.kern.mode_switch::user                  0                       # number of protection mode switches
system.new0.kern.mode_switch::idle                  0                       # number of protection mode switches
system.new0.kern.mode_good::kernel                  0                      
system.new0.kern.mode_good::user                    0                      
system.new0.kern.mode_good::idle                    0                      
system.new0.kern.mode_switch_good::kernel     no_value                       # fraction of useful protection mode switches
system.new0.kern.mode_switch_good::user      no_value                       # fraction of useful protection mode switches
system.new0.kern.mode_switch_good::idle      no_value                       # fraction of useful protection mode switches
system.new0.kern.mode_switch_good::total     no_value                       # fraction of useful protection mode switches
system.new0.kern.mode_ticks::kernel                 0                       # number of ticks spent at the given mode
system.new0.kern.mode_ticks::user                   0                       # number of ticks spent at the given mode
system.new0.kern.mode_ticks::idle                   0                       # number of ticks spent at the given mode
system.new0.kern.swap_context                       0                       # number of times the context was actually changed
system.new1.kern.inst.arm                           0                       # number of arm instructions executed
system.new1.kern.inst.quiesce                       0                       # number of quiesce instructions executed
system.new1.kern.inst.hwrei                         0                       # number of hwrei instructions executed
system.new1.kern.mode_switch::kernel                0                       # number of protection mode switches
system.new1.kern.mode_switch::user                  0                       # number of protection mode switches
system.new1.kern.mode_switch::idle                  0                       # number of protection mode switches
system.new1.kern.mode_good::kernel                  0                      
system.new1.kern.mode_good::user                    0                      
system.new1.kern.mode_good::idle                    0                      
system.new1.kern.mode_switch_good::kernel     no_value                       # fraction of useful protection mode switches
system.new1.kern.mode_switch_good::user      no_value                       # fraction of useful protection mode switches
system.new1.kern.mode_switch_good::idle      no_value                       # fraction of useful protection mode switches
system.new1.kern.mode_switch_good::total     no_value                       # fraction of useful protection mode switches
system.new1.kern.mode_ticks::kernel                 0                       # number of ticks spent at the given mode
system.new1.kern.mode_ticks::user                   0                       # number of ticks spent at the given mode
system.new1.kern.mode_ticks::idle                   0                       # number of ticks spent at the given mode
system.new1.kern.swap_context                       0                       # number of times the context was actually changed
system.new2.kern.inst.arm                           0                       # number of arm instructions executed
system.new2.kern.inst.quiesce                       0                       # number of quiesce instructions executed
system.new2.kern.inst.hwrei                         0                       # number of hwrei instructions executed
system.new2.kern.mode_switch::kernel                0                       # number of protection mode switches
system.new2.kern.mode_switch::user                  0                       # number of protection mode switches
system.new2.kern.mode_switch::idle                  0                       # number of protection mode switches
system.new2.kern.mode_good::kernel                  0                      
system.new2.kern.mode_good::user                    0                      
system.new2.kern.mode_good::idle                    0                      
system.new2.kern.mode_switch_good::kernel     no_value                       # fraction of useful protection mode switches
system.new2.kern.mode_switch_good::user      no_value                       # fraction of useful protection mode switches
system.new2.kern.mode_switch_good::idle      no_value                       # fraction of useful protection mode switches
system.new2.kern.mode_switch_good::total     no_value                       # fraction of useful protection mode switches
system.new2.kern.mode_ticks::kernel                 0                       # number of ticks spent at the given mode
system.new2.kern.mode_ticks::user                   0                       # number of ticks spent at the given mode
system.new2.kern.mode_ticks::idle                   0                       # number of ticks spent at the given mode
system.new2.kern.swap_context                       0                       # number of times the context was actually changed
system.new3.kern.inst.arm                           0                       # number of arm instructions executed
system.new3.kern.inst.quiesce                       0                       # number of quiesce instructions executed
system.new3.kern.inst.hwrei                         0                       # number of hwrei instructions executed
system.new3.kern.mode_switch::kernel                0                       # number of protection mode switches
system.new3.kern.mode_switch::user                  0                       # number of protection mode switches
system.new3.kern.mode_switch::idle                  0                       # number of protection mode switches
system.new3.kern.mode_good::kernel                  0                      
system.new3.kern.mode_good::user                    0                      
system.new3.kern.mode_good::idle                    0                      
system.new3.kern.mode_switch_good::kernel     no_value                       # fraction of useful protection mode switches
system.new3.kern.mode_switch_good::user      no_value                       # fraction of useful protection mode switches
system.new3.kern.mode_switch_good::idle      no_value                       # fraction of useful protection mode switches
system.new3.kern.mode_switch_good::total     no_value                       # fraction of useful protection mode switches
system.new3.kern.mode_ticks::kernel                 0                       # number of ticks spent at the given mode
system.new3.kern.mode_ticks::user                   0                       # number of ticks spent at the given mode
system.new3.kern.mode_ticks::idle                   0                       # number of ticks spent at the given mode
system.new3.kern.swap_context                       0                       # number of times the context was actually changed

---------- End Simulation Statistics   ----------
